 DIM-GROUP
 3   9

 PRIMVEC
   2.4871328804     0.0000000000     0.0000000000
  -1.2435664402     2.1539202570     0.0000000000
   0.0000000000     0.0000000000     8.7049650813

 PRIMCOORD
           2           1
C       1.1192097962   0.6461760771   4.3524825407
C       0.0000000000   1.2923521542   4.3524825407
